test/IEEE_37node_small.glm
// Phase Conductor for 721: 1,000,000 AA,CN
object underground_line_conductor { 
	 name ug_lc_7210;
	 outer_diameter 1.980000;
	 conductor_gmr 0.036800;
	 conductor_diameter 1.150000;
	 conductor_resistance 0.105000;
	 neutral_gmr 0.003310;
	 neutral_resistance 5.903000;
	 neutral_diameter 0.102000;
	 neutral_strands 20.000000;
	 shield_gmr 0.000000;
	 shield_resistance 0.000000;
}

// Phase Conductor for 722: 500,000 AA,CN
object underground_line_conductor { 
	 name ug_lc_7220;
	 outer_diameter 1.560000;
	 conductor_gmr 0.026000;
	 conductor_diameter 0.813000;
	 conductor_resistance 0.206000;
	 neutral_gmr 0.002620;
	 neutral_resistance 9.375000;
	 neutral_diameter 0.081000;
	 neutral_strands 16.000000;
	 shield_gmr 0.000000;
	 shield_resistance 0.000000;
}

// Phase Conductor for 723: 2/0 AA,CN
object underground_line_conductor { 
	 name ug_lc_7230;
	 outer_diameter 1.100000;
	 conductor_gmr 0.012500;
	 conductor_diameter 0.414000;
	 conductor_resistance 0.769000;
	 neutral_gmr 0.002080;
	 neutral_resistance 14.872000;
	 neutral_diameter 0.064000;
	 neutral_strands 7.000000;
	 shield_gmr 0.000000;
	 shield_resistance 0.000000;
}

// Phase Conductor for 724: //2 AA,CN
object underground_line_conductor { 
	 name ug_lc_7240;
	 outer_diameter 0.980000;
	 conductor_gmr 0.008830;
	 conductor_diameter 0.292000;
	 conductor_resistance 1.540000;
	 neutral_gmr 0.002080;
	 neutral_resistance 14.872000;
	 neutral_diameter 0.064000;
	 neutral_strands 6.000000;
	 shield_gmr 0.000000;
	 shield_resistance 0.000000;
}

// underground line spacing: spacing id 515 
object line_spacing {
	 name spacing_515;
	 distance_AB 0.500000;
	 distance_BC 0.500000;
	 distance_AC 1.000000;
	 distance_AN 0.000000;
	 distance_BN 0.000000;
	 distance_CN 0.000000;
}

//line configurations:
object line_configuration {
	 name lc_7211;
	 conductor_A ug_lc_7210;
	 conductor_B ug_lc_7210;
	 conductor_C ug_lc_7210;
	 spacing spacing_515;
}

object line_configuration {
	 name lc_7221;
	 conductor_A ug_lc_7220;
	 conductor_B ug_lc_7220;
	 conductor_C ug_lc_7220;
	 spacing spacing_515;
}

object line_configuration {
	 name lc_7231;
	 conductor_A ug_lc_7230;
	 conductor_B ug_lc_7230;
	 conductor_C ug_lc_7230;
	 spacing spacing_515;
}

object line_configuration {
	 name lc_7241;
	 conductor_A ug_lc_7240;
	 conductor_B ug_lc_7240;
	 conductor_C ug_lc_7240;
	 spacing spacing_515;
}

//create lineobjects:
object underground_line {
	 phases "ABC";
	 name node701-702;
	 from load701;
	 to node702;
	 length 960;
	 configuration lc_7221;
}

object underground_line {
	 phases "ABC";
	 name node702-705;
	 from node702;
	 to node705;
	 length 400;
	 configuration lc_7241;
}

object underground_line {
	 phases "ABC";
	 name node702-713;
	 from node702;
	 to load713;
	 length 360;
	 configuration lc_7231;
}

object underground_line {
	 phases "ABC";
	 name node702-703;
	 from node702;
	 to node703;
	 length 1320;
	 configuration lc_7221;
}

object underground_line {
	 phases "ABC";
	 name node703-727;
	 from node703;
	 to load727;
	 length 240;
	 configuration lc_7241;
}

object underground_line {
	 phases "ABC";
	 name node703-730;
	 from node703;
	 to load730;
	 length 600;
	 configuration lc_7231;
}

object underground_line {
	 phases "ABC";
	 name node704-714;
	 from node704;
	 to load714;
	 length 80;
	 configuration lc_7241;
}

object underground_line {
	 phases "ABC";
	 name node704-720;
	 from node704;
	 to load720;
	 length 800;
	 configuration lc_7231;
}

object underground_line {
	 phases "ABC";
	 name node705-742;
	 from node705;
	 to load742;
	 length 320;
	 configuration lc_7241;
}

object underground_line {
	 phases "ABC";
	 name node705-712;
	 from node705;
	 to load712;
	 length 240;
	 configuration lc_7241;
}

object underground_line {
	 phases "ABC";
	 name node706-725;
	 from node706;
	 to load725;
	 length 280;
	 configuration lc_7241;
}

object underground_line {
	 phases "ABC";
	 name node707-724;
	 from node707;
	 to load724;
	 length 760;
	 configuration lc_7241;
}

object underground_line {
	 phases "ABC";
	 name node707-722;
	 from node707;
	 to load722;
	 length 120;
	 configuration lc_7241;
}

object underground_line {
	 phases "ABC";
	 name node708-733;
	 from node708;
	 to load733;
	 length 320;
	 configuration lc_7231;
}

object underground_line {
	 phases "ABC";
	 name node708-732;
	 from node708;
	 to load732;
	 length 320;
	 configuration lc_7241;
}

object underground_line {
	 phases "ABC";
	 name node709-731;
	 from node709;
	 to load731;
	 length 600;
	 configuration lc_7231;
}

object underground_line {
	 phases "ABC";
	 name node709-708;
	 from node709;
	 to node708;
	 length 320;
	 configuration lc_7231;
}

object underground_line {
	 phases "ABC";
	 name node710-735;
	 from node710;
	 to load735;
	 length 200;
	 configuration lc_7241;
}

object underground_line {
	 phases "ABC";
	 name node710-736;
	 from node710;
	 to load736;
	 length 1280;
	 configuration lc_7241;
}

object underground_line {
	 phases "ABC";
	 name node711-741;
	 from node711;
	 to load741;
	 length 400;
	 configuration lc_7231;
}

object underground_line {
	 phases "ABC";
	 name node711-740;
	 from node711;
	 to load740;
	 length 200;
	 configuration lc_7241;
}

object underground_line {
	 phases "ABC";
	 name node713-704;
	 from load713;
	 to node704;
	 length 520;
	 configuration lc_7231;
}

object underground_line {
	 phases "ABC";
	 name node714-718;
	 from load714;
	 to load718;
	 length 520;
	 configuration lc_7241;
}

object underground_line {
	 phases "ABC";
	 name node720-707;
	 from load720;
	 to node707;
	 length 920;
	 configuration lc_7241;
}

object underground_line {
	 phases "ABC";
	 name node720-706;
	 from load720;
	 to node706;
	 length 600;
	 configuration lc_7231;
}

object underground_line {
	 phases "ABC";
	 name node781-701;
	 from node781;
	 to load701;
	 length 1850;
	 configuration lc_7211;
}
//END of line

//create nodes


//Create extra node for other side of regulator
object node {
	 phases "ABC";
	 name node781;
	 bustype SWING;
	 voltage_A 2504.88-1446.19314229j;
	 voltage_B -2504.88-1446.19314229j;
	 voltage_C -44.88+2814.65184433j;
	 nominal_voltage 4800;
}

object node {
	 phases "ABC";
	 name node702;
	 voltage_A 2400.000000 -1385.640646j;
	 voltage_B -2400.000000 -1385.640646j;
	 voltage_C 0.000000+2771.281292j;
	 nominal_voltage 4800;
}

object node {
	 phases "ABC";
	 name node703;
	 voltage_A 2400.000000 -1385.640646j;
	 voltage_B -2400.000000 -1385.640646j;
	 voltage_C 0.000000+2771.281292j;
	 nominal_voltage 4800;
}

object node {
	 phases "ABC";
	 name node704;
	 voltage_A 2400.000000 -1385.640646j;
	 voltage_B -2400.000000 -1385.640646j;
	 voltage_C 0.000000+2771.281292j;
	 nominal_voltage 4800;
}

object node {
	 phases "ABC";
	 name node705;
	 voltage_A 2400.000000 -1385.640646j;
	 voltage_B -2400.000000 -1385.640646j;
	 voltage_C 0.000000+2771.281292j;
	 nominal_voltage 4800;
}

object node {
	 phases "ABC";
	 name node706;
	 voltage_A 2400.000000 -1385.640646j;
	 voltage_B -2400.000000 -1385.640646j;
	 voltage_C 0.000000+2771.281292j;
	 nominal_voltage 4800;
}

object node {
	 phases "ABC";
	 name node707;
	 voltage_A 2400.000000 -1385.640646j;
	 voltage_B -2400.000000 -1385.640646j;
	 voltage_C 0.000000+2771.281292j;
	 nominal_voltage 4800;
}

object node {
	 phases "ABC";
	 name node708;
	 voltage_A 2400.000000 -1385.640646j;
	 voltage_B -2400.000000 -1385.640646j;
	 voltage_C 0.000000+2771.281292j;
	 nominal_voltage 4800;
}

object node {
	 phases "ABC";
	 name node709;
	 voltage_A 2400.000000 -1385.640646j;
	 voltage_B -2400.000000 -1385.640646j;
	 voltage_C 0.000000+2771.281292j;
	 nominal_voltage 4800;
}

object node {
	 phases "ABC";
	 name node710;
	 voltage_A 2400.000000 -1385.640646j;
	 voltage_B -2400.000000 -1385.640646j;
	 voltage_C 0.000000+2771.281292j;
	 nominal_voltage 4800;
}
